Stray ".ends" card: .ends ping-pong-ota
Circuit: * z:\home\ludwigcron\Projects\reflow\tests\analog\ltspice\ota\tc_gain.asc

Warning: Pd = 0 is less than W.
Warning: Ps = 0 is less than W.
Warning: Pd = 0 is less than W.
Warning: Ps = 0 is less than W.
Warning: Pd = 0 is less than W.
Warning: Ps = 0 is less than W.
Warning: Pd = 0 is less than W.
Warning: Ps = 0 is less than W.
Direct Newton iteration failed to find .op point.  (Use ".option noopiter" to skip.)
Starting Gmin stepping
Gmin = 10
Gmin = 1.07374
Gmin = 0.115292
Gmin = 0.0123794
Gmin = 0.00132923
Gmin = 0.000142725
Gmin = 1.5325e-05
Gmin = 1.6455e-06
Gmin = 1.76685e-07
Gmin = 1.89714e-08
Gmin = 2.03704e-09
Gmin = 2.18725e-10
Gmin = 2.34854e-11
Gmin = 2.52173e-12
Gmin = 2.70769e-13
Gmin = 0
Gmin stepping succeeded in finding the operating point.

Ignoring empty pin current: Ix(x2:vind)
Ignoring empty pin current: Ix(x2:vind)

Date: Mon Apr 13 21:43:40 2020
Total elapsed time: 1.165 seconds.

tnom = 27
temp = 27
method = modified trap
totiter = 59155
traniter = 58733
tranpoints = 17860
accept = 13041
rejected = 4819
matrix size = 42
fillins = 70
solver = Normal
Thread vector: 16.6/14.1[2] 4.5/2.9[2] 1.7/1.9[1] 0.2/1.3[1]  2592/500
Matrix Compiler1: 7.82 KB object code size  1.2/0.7/[0.5]
Matrix Compiler2: 4.59 KB object code size  1.0/1.3/[0.3]

